1

   Abaqus 2024                                  Date 23-Jun-2025   Time 04:33:59
   For use by TRUSTEES OF COLUMBIA UNIVERSITY IN THE CITY OF NEW YORK under license from Dassault Systemes or its subsidiary.



                         The Abaqus Software is a product of:

                           Dassault Systemes SIMULIA Corp.
                           1301 Atwood Avenue, Suite 101W
                              Johnston, RI 02919, USA
 


                   The Abaqus Software is available only under license
                   from Dassault Systemes or its subsidiary and may be
                   used or reproduced only in accordance with the terms
                   of such license.
 
                          On machine MM6263WS02 
                          you are authorized to run
                          Abaqus/Standard until 27-Feb-2027

                          Your site id is: 200000000028930 


 
                    For assistance or any other information you may
                    obtain contact information for your local office
                    from the world wide web at:

                      https://www.3ds.com/products-services/simulia/services-support/

 
                * * * * * * * * * * * * * * * * * * * * * * * * * * * * * * 
                *                                                         * 
                *                   *****************                     * 
                *                   *  N O T I C E  *                     * 
                *                   *****************                     * 
                *                                                         * 
                *                                                         * 
                *                       Abaqus 2024                       * 
                *                                                         * 
                *       BUILD ID: 2023_09_21-08.55.25 RELr426 190762      * 
                *                                                         * 
                *                                                         * 
                *  Please make sure you are using                         * 
                *  release Abaqus 2024 manuals                            * 
                *  plus the notes accompanying this release.              * 
                *                                                         * 
                *                                                         * 
                *                                                         * 
                *                                                         * 
                *                                                         * 
                *   This program may not be used for commercial purposes  * 
                *           without payment of a commercial fee.          * 
                *                                                         * 
                * * * * * * * * * * * * * * * * * * * * * * * * * * * * * * 


 



     PROCESSING PART, INSTANCE, AND ASSEMBLY INFORMATION
   *******************************************************


 ***ERROR: in keyword *BOUNDARY, file "Job-2.inp", line 167: Unknown assembly 
           node set ALL_NODES
 ***NOTE: DUE TO AN INPUT ERROR THE ANALYSIS PRE-PROCESSOR HAS BEEN UNABLE TO 
          INTERPRET SOME DATA.  SUBSEQUENT ERRORS MAY BE CAUSED BY THIS OMISSION

     END PROCESSING PART, INSTANCE, AND ASSEMBLY INFORMATION
   ***********************************************************




     OPTIONS BEING PROCESSED
   ***************************


  *Heading
  *Element, type=C3D8RT
  *Elset, elset=ASSEMBLY_TWENTY_SEVEN_INSTANCE__PICKEDSET2
  *Elset, elset=ASSEMBLY__PICKEDSET4
  *Elset, elset=ASSEMBLY__PICKEDSET5
  *coupledtemperature-displacement, creep=NONE, deltmx=10
  *material, name=SMP-10
  *conductivity
  *density
  *depvar
  *elastic
  *expansion
  *specificheat

 ***WARNING: THE ABSOLUTE ZERO TEMPERATURE HAS NOT BEEN SPECIFIED FOR COMPUTING 
             INTERNAL THERMAL ENERGY USING THE ABSOLUTE ZERO PARAMETER ON THE 
             *PHYSICAL CONSTANTS OPTION. A DEFAULT VALUE OF 0.0000 WILL BE 
             ASSUMED.
  *usermaterial, constants=0, type=THERMAL
  *usermaterial, constants=2, type=MECHANICAL

 ***ERROR: THE OPTION *USER MATERIAL,TYPE=MECHANICAL COMPLETELY DEFINES THE 
           MATERIAL BEHAVIOR. IT CAN NOT BE USED WITH AN OPTION THAT DEFINES 
           PART OF A MATERIAL`S BEHAVIOR

 ***ERROR: THE OPTION *USER MATERIAL,TYPE=THERMAL COMPLETELY DEFINES THE HEAT 
           TRANSFER BEHAVIOR. IT CANNOT BE USED WITH AN OPTION THAT DEFINES 
           PART OF A MATERIAL`S HEAT TRANSFER BEHAVIOR, NAMELY, *CONDUCTIVITY, 
           *SPECIFIC HEAT, OR*LATENT HEAT
  *solidsection, elset=ASSEMBLY_TWENTY_SEVEN_INSTANCE__PICKEDSET2, material=SMP-10
  *solidsection, elset=ASSEMBLY_TWENTY_SEVEN_INSTANCE__PICKEDSET2, material=SMP-10
  *boundary
  *boundary, amplitude=TWENTY_SEVEN_DISPLACEMENTAMP
  *boundary, amplitude=TWENTY_SEVEN_DISPLACEMENTAMP
  *boundary
  *boundary, amplitude=TWENTY_SEVEN_DISPLACEMENTAMP
  *boundary, amplitude=TWENTY_SEVEN_DISPLACEMENTAMP
  *output, field
  *output, history, variable=PRESELECT
  *elementoutput, directions=YES
  *output, field
  *output, history, variable=PRESELECT
  *elementoutput, directions=YES
  *output, field
  *output, history, variable=PRESELECT
  *elementoutput, directions=YES

 ***WARNING: UMATHT SHOULD NOT BE USED WITH REDUCED INTEGRATED OR MODIFIED 
             ELEMENTS IF THE MECHANICAL AND THERMAL FIELD ARE COUPLED THROUGH 
             PLASTIC DISSIPATION. IT IS RECOMMENDED THAT YOU USE FULLY 
             INTEGRATED ELEMENTS INSTEAD.
  *Step, name=twenty_seven_Displacement_Step, nlgeom=NO, inc=1000000
  *output, field
  *output, history, variable=PRESELECT
  *Step, name=twenty_seven_Displacement_Step, nlgeom=NO, inc=1000000

 ***ERROR: NODE SET ASSEMBLY_ALL_NODES HAS NOT BEEN DEFINED

 ***ERROR: NODE SET ASSEMBLY_ALL_NODES HAS NOT BEEN DEFINED
  *Step, name=twenty_seven_Displacement_Step, nlgeom=NO, inc=1000000
  twenty_seven_Apply controlled displacement in this step                         
  *coupledtemperature-displacement, creep=NONE, deltmx=10
  *boundary, amplitude=TWENTY_SEVEN_DISPLACEMENTAMP
  *boundary, amplitude=TWENTY_SEVEN_DISPLACEMENTAMP
  *output, field
  *nodeoutput
  *elementoutput, directions=YES
  *output, history, variable=PRESELECT
  *endstep
  *boundary
  *Step, name=twenty_seven_Displacement_Step, nlgeom=NO, inc=1000000
  *coupledtemperature-displacement, creep=NONE, deltmx=10
  *boundary, amplitude=TWENTY_SEVEN_DISPLACEMENTAMP

 ***ERROR: A BOUNDARY CONDITION HAS BEEN SPECIFIED ON NODE SET 
           ASSEMBLY_ALL_NODES BUT THIS NODE SET IS NOT ACTIVE IN THE MODEL
  *boundary, amplitude=TWENTY_SEVEN_DISPLACEMENTAMP
  *endstep

 ***ERROR: NODE SET ASSEMBLY_ALL_NODES HAS NOT BEEN DEFINED

 ***ERROR: A MATERIAL PROPERTY THAT IS NOT ALLOWED WITH A USER MATERIAL HAS 
           BEEN SPECIFIED

 ***ERROR: A MATERIAL PROPERTY THAT IS NOT ALLOWED WITH *USER 
           MATERIAL,TYPE=THERMAL HAS BEEN SPECIFIED

 ***ERROR: A MATERIAL PROPERTY THAT IS NOT ALLOWED WITH *USER 
           MATERIAL,TYPE=THERMAL HAS BEEN SPECIFIED

 ***ERROR: A MATERIAL PROPERTY THAT IS NOT ALLOWED WITH *USER 
           MATERIAL,TYPE=THERMAL HAS BEEN SPECIFIED



                            P R O B L E M   S I Z E


          NUMBER OF ELEMENTS IS                                    27
          NUMBER OF NODES IS                                       64
          NUMBER OF NODES DEFINED BY THE USER                      64
          TOTAL NUMBER OF VARIABLES IN THE MODEL                  256
          (DEGREES OF FREEDOM PLUS MAX NO. OF ANY LAGRANGE MULTIPLIER
           VARIABLES. INCLUDE *PRINT,SOLVE=YES TO GET THE ACTUAL NUMBER.)





          THE PROGRAM HAS DISCOVERED    11 FATAL ERRORS

               ** EXECUTION IS TERMINATED **



                              END OF USER INPUT PROCESSING



     JOB TIME SUMMARY
       USER TIME (SEC)      =     0.10    
       SYSTEM TIME (SEC)    =      0.0    
       TOTAL CPU TIME (SEC) =     0.10    
       WALLCLOCK TIME (SEC) =            1
