 Abaqus/Standard 2024                  DATE 14-Jul-2025 TIME 00:07:25
 SUMMARY OF JOB INFORMATION:
 STEP  INC ATT SEVERE EQUIL TOTAL  TOTAL      STEP       INC OF       DOF    IF
               DISCON ITERS ITERS  TIME/    TIME/LPF    TIME/LPF    MONITOR RIKS
               ITERS               FREQ
   1     1   1     0     1     1  60.0       60.0       60.00     
   1     2   1     0     1     1  120.       120.       60.00     
   1     3   1     0     1     1  180.       180.       60.00     
   1     4   1     0     1     1  300.       300.       120.0     
   1     5   1     0     1     1  540.       540.       240.0     
   1     6   1     0     1     1  1.02e+03   1.02e+03   480.0     
   1     7   1     0     1     1  1.98e+03   1.98e+03   960.0     
   1     8   1     0     1     1  3.90e+03   3.90e+03   1920.     
   1     9   1     0     1     1  7.74e+03   7.74e+03   3840.     
   1    10   1     0     1     1  1.54e+04   1.54e+04   7680.     
   1    11   1     0     1     1  3.08e+04   3.08e+04   1.536e+04 
   1    12   1     0     1     1  3.48e+04   3.48e+04   4020.     
                          
 THE ANALYSIS HAS COMPLETED SUCCESSFULLY
