1

   Abaqus 2024                                  Date 14-Jul-2025   Time 00:05:29
   For use by TRUSTEES OF COLUMBIA UNIVERSITY IN THE CITY OF NEW YORK under license from Dassault Systemes or its subsidiary.

 faisal_Single element test                                                      
 faisal_Apply controlled displacement in this step                               
 STEP    1     INCREMENT     1     STEP TIME    0.00    


                        S T E P       1     C O U P L E D - T E M P E R A T U R E - D I S P L A C E M E N T   A N A L Y S I S


          faisal_Apply controlled displacement in this step                               

     AUTOMATIC TIME CONTROL WITH -
          A SUGGESTED INITIAL TIME INCREMENT OF                 60.0    
          AND A TOTAL TIME PERIOD OF                           3.480E+04
          THE MINIMUM TIME INCREMENT ALLOWED IS                1.000E-06
          THE MAXIMUM TIME INCREMENT ALLOWED IS                3.480E+04

          CREEP AND SWELLING EFFECTS ARE OMITTED IN THIS STEP

     THE SIZE OF THE TIME INCREMENT IS CONTROLLED BY -
          THE TEMPERATURE CHANGE PER INCREMENT NOT EXCEEDING            10.0    
          THE RATE DEPENDENCY WILL BE CONSIDERED IN THIS STEP

          CREEP AND SWELLING EFFECTS WILL BE IGNORED.

 CONVERGENCE TOLERANCE PARAMETERS FOR FORCE    
     CRITERION FOR RESIDUAL FORCE     FOR A NONLINEAR PROBLEM          5.000E-03
     CRITERION FOR DISP.    CORRECTION IN A NONLINEAR PROBLEM          1.000E-02
     INITIAL VALUE OF TIME AVERAGE FORCE                               1.000E-02
     AVERAGE FORCE     IS TIME AVERAGE FORCE    
     ALTERNATE CRIT. FOR RESIDUAL FORCE     FOR A NONLINEAR PROBLEM    2.000E-02
     CRITERION FOR ZERO FORCE     RELATIVE TO TIME AVRG. FORCE         1.000E-05
     CRITERION FOR RESIDUAL FORCE     WHEN THERE IS ZERO FLUX          1.000E-05
     CRITERION FOR DISP.    CORRECTION WHEN THERE IS ZERO FLUX         1.000E-03
     CRITERION FOR RESIDUAL FORCE     FOR A LINEAR INCREMENT           1.000E-08
     FIELD CONVERSION RATIO                                             1.00    
     CRITERION FOR ZERO FORCE     REL. TO TIME AVRG. MAX. FORCE        1.000E-05
     CRITERION FOR ZERO DISP.    RELATIVE TO CHARACTERISTIC LENGTH     1.000E-08

 CONVERGENCE TOLERANCE PARAMETERS FOR HEAT FLUX
     CRITERION FOR RESIDUAL HEAT FLUX FOR A NONLINEAR PROBLEM          5.000E-03
     CRITERION FOR TEMP.    CORRECTION IN A NONLINEAR PROBLEM          1.000E-02
     INITIAL VALUE OF TIME AVERAGE HEAT FLUX                           1.000E-02
     AVERAGE HEAT FLUX IS TIME AVERAGE HEAT FLUX
     ALTERNATE CRIT. FOR RESIDUAL HEAT FLUX FOR A NONLINEAR PROBLEM    2.000E-02
     CRITERION FOR ZERO HEAT FLUX RELATIVE TO TIME AVRG. HEAT FLUX     1.000E-05
     CRITERION FOR RESIDUAL HEAT FLUX WHEN THERE IS ZERO FLUX          1.000E-05
     CRITERION FOR TEMP.    CORRECTION WHEN THERE IS ZERO FLUX         1.000E-03
     CRITERION FOR RESIDUAL HEAT FLUX FOR A LINEAR INCREMENT           1.000E-08
     FIELD CONVERSION RATIO                                             1.00    
     CRITERION FOR ZERO HEAT FLUX REL. TO TIME AVRG. MAX. HEAT FLUX    1.000E-05

     VOLUMETRIC STRAIN COMPATIBILITY TOLERANCE FOR HYBRID SOLIDS       1.000E-05
     AXIAL STRAIN COMPATIBILITY TOLERANCE FOR HYBRID BEAMS             1.000E-05
     TRANS. SHEAR STRAIN COMPATIBILITY TOLERANCE FOR HYBRID BEAMS      1.000E-05
     SOFT CONTACT CONSTRAINT COMPATIBILITY TOLERANCE FOR P>P0          5.000E-03
     SOFT CONTACT CONSTRAINT COMPATIBILITY TOLERANCE FOR P=0.0         0.100    
     CONTACT FORCE ERROR TOLERANCE FOR CONVERT SDI=YES                 1.00    
     DISPLACEMENT COMPATIBILITY TOLERANCE FOR DCOUP ELEMENTS           1.000E-05
     ROTATION COMPATIBILITY TOLERANCE FOR DCOUP ELEMENTS               1.000E-05

 EQUILIBRIUM WILL BE CHECKED FOR SEVERE DISCONTINUITY ITERATIONS

 TIME INCREMENTATION CONTROL PARAMETERS:
     FIRST EQUILIBRIUM ITERATION FOR CONSECUTIVE DIVERGENCE CHECK              4
     EQUILIBRIUM ITERATION AT WHICH LOG. CONVERGENCE RATE CHECK BEGINS         8
     EQUILIBRIUM ITERATION AFTER WHICH ALTERNATE RESIDUAL IS USED              9
     MAXIMUM EQUILIBRIUM ITERATIONS ALLOWED                                   16
     EQUILIBRIUM ITERATION COUNT FOR CUT-BACK IN NEXT INCREMENT               10
     MAXIMUM EQUILIB. ITERS IN TWO INCREMENTS FOR TIME INCREMENT INCREASE      4
     MAXIMUM ITERATIONS FOR SEVERE DISCONTINUITIES                            50
     MAXIMUM ATTEMPTS ALLOWED IN AN INCREMENT                                  5
     MAXIMUM DISCON. ITERS IN TWO INCREMENTS FOR TIME INCREMENT INCREASE      50
     MAXIMUM CONTACT AUGMENTATIONS FOR *SURFACE BEHAVIOR,AUGMENTED LAGRANGE   50
     CONSECUTIVE INCS MEETING TIME INTEG. TOL. FOR TIME INC. INCREASE          3
     CUT-BACK FACTOR AFTER DIVERGENCE                                 0.2500    
     CUT-BACK FACTOR FOR TOO SLOW CONVERGENCE                         0.5000    
     CUT-BACK FACTOR AFTER TOO MANY EQUILIBRIUM ITERATIONS            0.7500    
     CUT-BACK FACTOR AFTER TOO MANY SEVERE DISCONTINUITY ITERATIONS   0.2500    
     CUT-BACK FACTOR AFTER PROBLEMS IN ELEMENT ASSEMBLY               0.2500    
     INCREASE FACTOR AFTER TWO INCREMENTS THAT CONVERGE QUICKLY        1.500    
     MAX. TIME INCREMENT INCREASE FACTOR ALLOWED                       1.500    
     MAX. TIME INCREMENT INCREASE FACTOR ALLOWED (DYNAMICS)            1.250    
     MAX. TIME INCREMENT INCREASE FACTOR ALLOWED (DIFFUSION)           2.000    
     MINIMUM TIME INCREMENT RATIO FOR EXTRAPOLATION TO OCCUR          0.1000    
     CUT-BACK FACTOR WHEN TIME INTEGRATION ACCURACY TOL. EXCEEDED     0.8500    
     MAX. RATIO OF TIME INTEG. MEASURE TO TOL. FOR TIME INC. INCREASE 0.7500    
     INCREASE FACTOR FOR TIME INCREMENT WHEN POSSIBLE                 0.8000    
     MIN. TIME INC. INCREASE FACTOR IN LINEAR TRANSIENT PROBLEMS      0.9500    
     MAX. RATIO OF TIME INCREMENT TO STABILITY LIMIT                   1.000    
     FRACTION OF STABILITY LIMIT FOR NEW TIME INCREMENT               0.9500    
     TIME INCREMENT INCREASE FACTOR BEFORE A TIME POINT                1.000    
     GLOBAL STABILIZATION CONTROL IS NOT USED

          PRINT OF INCREMENT NUMBER, TIME, ETC., EVERY    1  INCREMENTS

     THE MAXIMUM NUMBER OF INCREMENTS IN THIS STEP IS                 1000000

          UNSYMMETRIC MATRIX STORAGE AND SOLUTION WILL BE USED

     LINEAR EXTRAPOLATION WILL BE USED

     CHARACTERISTIC ELEMENT LENGTH     0.500    

     DETAILS REGARDING ACTUAL SOLUTION WAVEFRONT REQUESTED

     DETAILED OUTPUT OF DIAGNOSTICS TO DATABASE REQUESTED

     PRINT OF INCREMENT NUMBER, TIME, ETC., TO THE MESSAGE FILE EVERY     1  INCREMENTS

     COLLECTING MODEL CONSTRAINT INFORMATION FOR OVERCONSTRAINT CHECKS

     COLLECTING STEP CONSTRAINT INFORMATION FOR OVERCONSTRAINT CHECKS


  INCREMENT     1 STARTS. ATTEMPT NUMBER  1, TIME INCREMENT   60.0    
 
	UNSYMMETRIC NEW DIRECT SPARSE SOLVER RUNNING ON
 	1 HOST x 1 MPI RANK PER HOST x 1 THREAD PER RANK
        NUMBER OF EQUATIONS:  108
        NUMBER OF RHS:        1
        NUMBER OF FLOPS:      2.204e+05
        SOLVER ELAPSED TIME:  18ms
 

 ***WARNING: SOLVER PROBLEM. NUMERICAL SINGULARITY WHEN PROCESSING NODE 
             FAISAL_INSTANCE.10 D.O.F. 2 RATIO = 1.E+15     .

               CONVERGENCE CHECKS FOR EQUILIBRIUM ITERATION     1


 AVERAGE FORCE                       121.       TIME AVG. FORCE        121.    
 LARGEST SCALED RESIDUAL FORCE      5.684E-13   AT NODE         11   DOF  1
   INSTANCE: FAISAL_INSTANCE                                                                 
  CORRESPONDING RESIDUAL FORCE      5.684E-13
 LARGEST INCREMENT OF DISP.          2.10       AT NODE          1   DOF  1
   INSTANCE: FAISAL_INSTANCE                                                                 
 LARGEST CORRECTION TO DISP.         2.10       AT NODE          1   DOF  1
   INSTANCE: FAISAL_INSTANCE                                                                 
          THE FORCE     EQUILIBRIUM RESPONSE WAS LINEAR IN THIS INCREMENT

 AVERAGE HEAT FLUX                  1.312E-07   TIME AVG. HEAT FLUX   1.312E-07
 ALL HEAT FLUX RESIDUALS ARE ZERO
 LARGEST INCREMENT OF TEMP.          420.       AT NODE          1   DOF 11
   INSTANCE: FAISAL_INSTANCE                                                                 
 LARGEST CORRECTION TO TEMP.         420.       AT NODE          1   DOF 11
   INSTANCE: FAISAL_INSTANCE                                                                 
          THE HEAT FLUX EQUILIBRIUM RESPONSE WAS LINEAR IN THIS INCREMENT

 MAXIMUM NON-PRESCRIBED INCREMENT IN TEMPERATURE IS    0.00    

 ITERATION SUMMARY FOR THE INCREMENT:   1 TOTAL ITERATIONS, OF WHICH
   0 ARE SEVERE DISCONTINUITY ITERATIONS AND  1 ARE EQUILIBRIUM ITERATIONS.

 TIME INCREMENT COMPLETED   60.0    ,  FRACTION OF STEP COMPLETED  1.724E-03
 STEP TIME COMPLETED        60.0    ,  TOTAL TIME COMPLETED         60.0    


  INCREMENT     2 STARTS. ATTEMPT NUMBER  1, TIME INCREMENT   60.0    
 
	UNSYMMETRIC NEW DIRECT SPARSE SOLVER RUNNING ON
 	1 HOST x 1 MPI RANK PER HOST x 1 THREAD PER RANK
        NUMBER OF EQUATIONS:  108
        NUMBER OF RHS:        1
        NUMBER OF FLOPS:      2.204e+05
        SOLVER ELAPSED TIME:  0ms

               CONVERGENCE CHECKS FOR EQUILIBRIUM ITERATION     1


 AVERAGE FORCE                       145.       TIME AVG. FORCE        133.    
 LARGEST SCALED RESIDUAL FORCE      7.958E-13   AT NODE         17   DOF  1
   INSTANCE: FAISAL_INSTANCE                                                                 
  CORRESPONDING RESIDUAL FORCE      7.958E-13
 LARGEST INCREMENT OF DISP.         -1.15       AT NODE         22   DOF  2
   INSTANCE: FAISAL_INSTANCE                                                                 
 LARGEST CORRECTION TO DISP.        -2.00       AT NODE          1   DOF  1
   INSTANCE: FAISAL_INSTANCE                                                                 
          THE FORCE     EQUILIBRIUM RESPONSE WAS LINEAR IN THIS INCREMENT

 AVERAGE HEAT FLUX                  6.250E-09   TIME AVG. HEAT FLUX   6.875E-08
 ALL HEAT FLUX RESIDUALS ARE ZERO
 LARGEST INCREMENT OF TEMP.          20.0       AT NODE          1   DOF 11
   INSTANCE: FAISAL_INSTANCE                                                                 
 LARGEST CORRECTION TO TEMP.        -400.       AT NODE          1   DOF 11
   INSTANCE: FAISAL_INSTANCE                                                                 
          THE HEAT FLUX EQUILIBRIUM RESPONSE WAS LINEAR IN THIS INCREMENT

 MAXIMUM NON-PRESCRIBED INCREMENT IN TEMPERATURE IS    0.00    

 ITERATION SUMMARY FOR THE INCREMENT:   1 TOTAL ITERATIONS, OF WHICH
   0 ARE SEVERE DISCONTINUITY ITERATIONS AND  1 ARE EQUILIBRIUM ITERATIONS.

 TIME INCREMENT COMPLETED   60.0    ,  FRACTION OF STEP COMPLETED  3.448E-03
 STEP TIME COMPLETED        120.    ,  TOTAL TIME COMPLETED         120.    


  INCREMENT     3 STARTS. ATTEMPT NUMBER  1, TIME INCREMENT   60.0    
 
	UNSYMMETRIC NEW DIRECT SPARSE SOLVER RUNNING ON
 	1 HOST x 1 MPI RANK PER HOST x 1 THREAD PER RANK
        NUMBER OF EQUATIONS:  108
        NUMBER OF RHS:        1
        NUMBER OF FLOPS:      2.204e+05
        SOLVER ELAPSED TIME:  0ms

               CONVERGENCE CHECKS FOR EQUILIBRIUM ITERATION     1


 AVERAGE FORCE                       152.       TIME AVG. FORCE        139.    
 LARGEST SCALED RESIDUAL FORCE      6.253E-13   AT NODE         14   DOF  1
   INSTANCE: FAISAL_INSTANCE                                                                 
  CORRESPONDING RESIDUAL FORCE      6.253E-13
 LARGEST INCREMENT OF DISP.         -1.15       AT NODE         25   DOF  2
   INSTANCE: FAISAL_INSTANCE                                                                 
 LARGEST CORRECTION TO DISP.       -5.055E-04   AT NODE          9   DOF  2
   INSTANCE: FAISAL_INSTANCE                                                                 
          THE FORCE     EQUILIBRIUM RESPONSE WAS LINEAR IN THIS INCREMENT

 AVERAGE HEAT FLUX                  6.250E-09   TIME AVG. HEAT FLUX   4.792E-08
 ALL HEAT FLUX RESIDUALS ARE ZERO
 LARGEST INCREMENT OF TEMP.          20.0       AT NODE          1   DOF 11
   INSTANCE: FAISAL_INSTANCE                                                                 
 LARGEST CORRECTION TO TEMP.       -4.375E-44   AT NODE         14   DOF 11
   INSTANCE: FAISAL_INSTANCE                                                                 
          THE HEAT FLUX EQUILIBRIUM RESPONSE WAS LINEAR IN THIS INCREMENT

 MAXIMUM NON-PRESCRIBED INCREMENT IN TEMPERATURE IS    0.00    
          TIME INCREMENT MAY NOW INCREASE TO     120.    

 ITERATION SUMMARY FOR THE INCREMENT:   1 TOTAL ITERATIONS, OF WHICH
   0 ARE SEVERE DISCONTINUITY ITERATIONS AND  1 ARE EQUILIBRIUM ITERATIONS.

 TIME INCREMENT COMPLETED   60.0    ,  FRACTION OF STEP COMPLETED  5.172E-03
 STEP TIME COMPLETED        180.    ,  TOTAL TIME COMPLETED         180.    


  INCREMENT     4 STARTS. ATTEMPT NUMBER  1, TIME INCREMENT   120.    
 
	UNSYMMETRIC NEW DIRECT SPARSE SOLVER RUNNING ON
 	1 HOST x 1 MPI RANK PER HOST x 1 THREAD PER RANK
        NUMBER OF EQUATIONS:  108
        NUMBER OF RHS:        1
        NUMBER OF FLOPS:      2.204e+05
        SOLVER ELAPSED TIME:  1ms
 

 ***WARNING: SOLVER PROBLEM. NUMERICAL SINGULARITY WHEN PROCESSING NODE 
             FAISAL_INSTANCE.10 D.O.F. 2 RATIO = 1.E+15     .

               CONVERGENCE CHECKS FOR EQUILIBRIUM ITERATION     1


 AVERAGE FORCE                       165.       TIME AVG. FORCE        146.    
 LARGEST SCALED RESIDUAL FORCE     -5.520E-13   AT NODE         17   DOF  2
   INSTANCE: FAISAL_INSTANCE                                                                 
  CORRESPONDING RESIDUAL FORCE     -5.520E-13
 LARGEST INCREMENT OF DISP.         -2.30       AT NODE         19   DOF  2
   INSTANCE: FAISAL_INSTANCE                                                                 
 LARGEST CORRECTION TO DISP.       -4.596E-05   AT NODE         24   DOF  2
   INSTANCE: FAISAL_INSTANCE                                                                 
          THE FORCE     EQUILIBRIUM RESPONSE WAS LINEAR IN THIS INCREMENT

 AVERAGE HEAT FLUX                  6.250E-09   TIME AVG. HEAT FLUX   3.750E-08
 ALL HEAT FLUX RESIDUALS ARE ZERO
 LARGEST INCREMENT OF TEMP.          40.0       AT NODE          1   DOF 11
   INSTANCE: FAISAL_INSTANCE                                                                 
 LARGEST CORRECTION TO TEMP.       -4.375E-44   AT NODE         14   DOF 11
   INSTANCE: FAISAL_INSTANCE                                                                 
          THE HEAT FLUX EQUILIBRIUM RESPONSE WAS LINEAR IN THIS INCREMENT

 MAXIMUM NON-PRESCRIBED INCREMENT IN TEMPERATURE IS    0.00    
          TIME INCREMENT MAY NOW INCREASE TO     240.    

 ITERATION SUMMARY FOR THE INCREMENT:   1 TOTAL ITERATIONS, OF WHICH
   0 ARE SEVERE DISCONTINUITY ITERATIONS AND  1 ARE EQUILIBRIUM ITERATIONS.

 TIME INCREMENT COMPLETED   120.    ,  FRACTION OF STEP COMPLETED  8.621E-03
 STEP TIME COMPLETED        300.    ,  TOTAL TIME COMPLETED         300.    


  INCREMENT     5 STARTS. ATTEMPT NUMBER  1, TIME INCREMENT   240.    
 
	UNSYMMETRIC NEW DIRECT SPARSE SOLVER RUNNING ON
 	1 HOST x 1 MPI RANK PER HOST x 1 THREAD PER RANK
        NUMBER OF EQUATIONS:  108
        NUMBER OF RHS:        1
        NUMBER OF FLOPS:      2.204e+05
        SOLVER ELAPSED TIME:  1ms
 

 ***WARNING: SOLVER PROBLEM. NUMERICAL SINGULARITY WHEN PROCESSING NODE 
             FAISAL_INSTANCE.10 D.O.F. 2 RATIO = 1.E+15     .

               CONVERGENCE CHECKS FOR EQUILIBRIUM ITERATION     1


 AVERAGE FORCE                       191.       TIME AVG. FORCE        155.    
 LARGEST SCALED RESIDUAL FORCE     -5.684E-13   AT NODE         13   DOF  1
   INSTANCE: FAISAL_INSTANCE                                                                 
  CORRESPONDING RESIDUAL FORCE     -5.684E-13
 LARGEST INCREMENT OF DISP.         -4.60       AT NODE         19   DOF  2
   INSTANCE: FAISAL_INSTANCE                                                                 
 LARGEST CORRECTION TO DISP.        2.298E-04   AT NODE         13   DOF  2
   INSTANCE: FAISAL_INSTANCE                                                                 
          THE FORCE     EQUILIBRIUM RESPONSE WAS LINEAR IN THIS INCREMENT

 AVERAGE HEAT FLUX                  6.250E-09   TIME AVG. HEAT FLUX   3.125E-08
 ALL HEAT FLUX RESIDUALS ARE ZERO
 LARGEST INCREMENT OF TEMP.          80.0       AT NODE          1   DOF 11
   INSTANCE: FAISAL_INSTANCE                                                                 
 LARGEST CORRECTION TO TEMP.       -4.375E-44   AT NODE         14   DOF 11
   INSTANCE: FAISAL_INSTANCE                                                                 
          THE HEAT FLUX EQUILIBRIUM RESPONSE WAS LINEAR IN THIS INCREMENT

 MAXIMUM NON-PRESCRIBED INCREMENT IN TEMPERATURE IS    0.00    
          TIME INCREMENT MAY NOW INCREASE TO     480.    

 ITERATION SUMMARY FOR THE INCREMENT:   1 TOTAL ITERATIONS, OF WHICH
   0 ARE SEVERE DISCONTINUITY ITERATIONS AND  1 ARE EQUILIBRIUM ITERATIONS.

 TIME INCREMENT COMPLETED   240.    ,  FRACTION OF STEP COMPLETED  1.552E-02
 STEP TIME COMPLETED        540.    ,  TOTAL TIME COMPLETED         540.    


  INCREMENT     6 STARTS. ATTEMPT NUMBER  1, TIME INCREMENT   480.    
 
	UNSYMMETRIC NEW DIRECT SPARSE SOLVER RUNNING ON
 	1 HOST x 1 MPI RANK PER HOST x 1 THREAD PER RANK
        NUMBER OF EQUATIONS:  108
        NUMBER OF RHS:        1
        NUMBER OF FLOPS:      2.204e+05
        SOLVER ELAPSED TIME:  1ms
 

 ***WARNING: SOLVER PROBLEM. NUMERICAL SINGULARITY WHEN PROCESSING NODE 
             FAISAL_INSTANCE.10 D.O.F. 2 RATIO = 1.E+15     .

               CONVERGENCE CHECKS FOR EQUILIBRIUM ITERATION     1


 AVERAGE FORCE                       244.       TIME AVG. FORCE        170.    
 LARGEST SCALED RESIDUAL FORCE     -1.815E-12   AT NODE         14   DOF  2
   INSTANCE: FAISAL_INSTANCE                                                                 
  CORRESPONDING RESIDUAL FORCE     -1.815E-12
 LARGEST INCREMENT OF DISP.         -9.21       AT NODE         22   DOF  2
   INSTANCE: FAISAL_INSTANCE                                                                 
 LARGEST CORRECTION TO DISP.       -6.434E-04   AT NODE         18   DOF  2
   INSTANCE: FAISAL_INSTANCE                                                                 
          THE FORCE     EQUILIBRIUM RESPONSE WAS LINEAR IN THIS INCREMENT

 AVERAGE HEAT FLUX                  6.250E-09   TIME AVG. HEAT FLUX   2.708E-08
 ALL HEAT FLUX RESIDUALS ARE ZERO
 LARGEST INCREMENT OF TEMP.          160.       AT NODE          1   DOF 11
   INSTANCE: FAISAL_INSTANCE                                                                 
 LARGEST CORRECTION TO TEMP.       -4.375E-44   AT NODE         14   DOF 11
   INSTANCE: FAISAL_INSTANCE                                                                 
          THE HEAT FLUX EQUILIBRIUM RESPONSE WAS LINEAR IN THIS INCREMENT

 MAXIMUM NON-PRESCRIBED INCREMENT IN TEMPERATURE IS    0.00    
          TIME INCREMENT MAY NOW INCREASE TO     960.    

 ITERATION SUMMARY FOR THE INCREMENT:   1 TOTAL ITERATIONS, OF WHICH
   0 ARE SEVERE DISCONTINUITY ITERATIONS AND  1 ARE EQUILIBRIUM ITERATIONS.

 TIME INCREMENT COMPLETED   480.    ,  FRACTION OF STEP COMPLETED  2.931E-02
 STEP TIME COMPLETED       1.020E+03,  TOTAL TIME COMPLETED        1.020E+03


  INCREMENT     7 STARTS. ATTEMPT NUMBER  1, TIME INCREMENT   960.    
 
	UNSYMMETRIC NEW DIRECT SPARSE SOLVER RUNNING ON
 	1 HOST x 1 MPI RANK PER HOST x 1 THREAD PER RANK
        NUMBER OF EQUATIONS:  108
        NUMBER OF RHS:        1
        NUMBER OF FLOPS:      2.204e+05
        SOLVER ELAPSED TIME:  1ms
 

 ***WARNING: SOLVER PROBLEM. NUMERICAL SINGULARITY WHEN PROCESSING NODE 
             FAISAL_INSTANCE.10 D.O.F. 2 RATIO = 1.E+15     .

               CONVERGENCE CHECKS FOR EQUILIBRIUM ITERATION     1


 AVERAGE FORCE                       350.       TIME AVG. FORCE        196.    
 LARGEST SCALED RESIDUAL FORCE      4.735E-12   AT NODE         14   DOF  2
   INSTANCE: FAISAL_INSTANCE                                                                 
  CORRESPONDING RESIDUAL FORCE      4.735E-12
 LARGEST INCREMENT OF DISP.         -18.4       AT NODE         25   DOF  2
   INSTANCE: FAISAL_INSTANCE                                                                 
 LARGEST CORRECTION TO DISP.        3.760E-14   AT NODE         12   DOF  1
   INSTANCE: FAISAL_INSTANCE                                                                 
          THE FORCE     EQUILIBRIUM RESPONSE WAS LINEAR IN THIS INCREMENT

 AVERAGE HEAT FLUX                  6.250E-09   TIME AVG. HEAT FLUX   2.411E-08
 ALL HEAT FLUX RESIDUALS ARE ZERO
 LARGEST INCREMENT OF TEMP.          320.       AT NODE          1   DOF 11
   INSTANCE: FAISAL_INSTANCE                                                                 
 LARGEST CORRECTION TO TEMP.       -4.375E-44   AT NODE         14   DOF 11
   INSTANCE: FAISAL_INSTANCE                                                                 
          THE HEAT FLUX EQUILIBRIUM RESPONSE WAS LINEAR IN THIS INCREMENT

 MAXIMUM NON-PRESCRIBED INCREMENT IN TEMPERATURE IS    0.00    
          TIME INCREMENT MAY NOW INCREASE TO    1.920E+03

 ITERATION SUMMARY FOR THE INCREMENT:   1 TOTAL ITERATIONS, OF WHICH
   0 ARE SEVERE DISCONTINUITY ITERATIONS AND  1 ARE EQUILIBRIUM ITERATIONS.

 TIME INCREMENT COMPLETED   960.    ,  FRACTION OF STEP COMPLETED  5.690E-02
 STEP TIME COMPLETED       1.980E+03,  TOTAL TIME COMPLETED        1.980E+03


  INCREMENT     8 STARTS. ATTEMPT NUMBER  1, TIME INCREMENT  1.920E+03
 
	UNSYMMETRIC NEW DIRECT SPARSE SOLVER RUNNING ON
 	1 HOST x 1 MPI RANK PER HOST x 1 THREAD PER RANK
        NUMBER OF EQUATIONS:  108
        NUMBER OF RHS:        1
        NUMBER OF FLOPS:      2.204e+05
        SOLVER ELAPSED TIME:  1ms
 

 ***WARNING: SOLVER PROBLEM. NUMERICAL SINGULARITY WHEN PROCESSING NODE 
             FAISAL_INSTANCE.10 D.O.F. 2 RATIO = 1.E+15     .

               CONVERGENCE CHECKS FOR EQUILIBRIUM ITERATION     1


 AVERAGE FORCE                       561.       TIME AVG. FORCE        241.    
 LARGEST SCALED RESIDUAL FORCE      3.287E-12   AT NODE         14   DOF  2
   INSTANCE: FAISAL_INSTANCE                                                                 
  CORRESPONDING RESIDUAL FORCE      3.287E-12
 LARGEST INCREMENT OF DISP.         -36.8       AT NODE         19   DOF  2
   INSTANCE: FAISAL_INSTANCE                                                                 
 LARGEST CORRECTION TO DISP.        3.676E-04   AT NODE         25   DOF  2
   INSTANCE: FAISAL_INSTANCE                                                                 
          THE FORCE     EQUILIBRIUM RESPONSE WAS LINEAR IN THIS INCREMENT

 AVERAGE HEAT FLUX                  6.250E-09   TIME AVG. HEAT FLUX   2.187E-08
 ALL HEAT FLUX RESIDUALS ARE ZERO
 LARGEST INCREMENT OF TEMP.          640.       AT NODE          1   DOF 11
   INSTANCE: FAISAL_INSTANCE                                                                 
 LARGEST CORRECTION TO TEMP.       -4.375E-44   AT NODE         14   DOF 11
   INSTANCE: FAISAL_INSTANCE                                                                 
          THE HEAT FLUX EQUILIBRIUM RESPONSE WAS LINEAR IN THIS INCREMENT

 MAXIMUM NON-PRESCRIBED INCREMENT IN TEMPERATURE IS    0.00    
          TIME INCREMENT MAY NOW INCREASE TO    3.840E+03

 ITERATION SUMMARY FOR THE INCREMENT:   1 TOTAL ITERATIONS, OF WHICH
   0 ARE SEVERE DISCONTINUITY ITERATIONS AND  1 ARE EQUILIBRIUM ITERATIONS.

 TIME INCREMENT COMPLETED  1.920E+03,  FRACTION OF STEP COMPLETED  0.112    
 STEP TIME COMPLETED       3.900E+03,  TOTAL TIME COMPLETED        3.900E+03


  INCREMENT     9 STARTS. ATTEMPT NUMBER  1, TIME INCREMENT  3.840E+03
 
	UNSYMMETRIC NEW DIRECT SPARSE SOLVER RUNNING ON
 	1 HOST x 1 MPI RANK PER HOST x 1 THREAD PER RANK
        NUMBER OF EQUATIONS:  108
        NUMBER OF RHS:        1
        NUMBER OF FLOPS:      2.204e+05
        SOLVER ELAPSED TIME:  1ms
 

 ***WARNING: SOLVER PROBLEM. NUMERICAL SINGULARITY WHEN PROCESSING NODE 
             FAISAL_INSTANCE.10 D.O.F. 2 RATIO = 1.E+15     .

               CONVERGENCE CHECKS FOR EQUILIBRIUM ITERATION     1


 AVERAGE FORCE                       984.       TIME AVG. FORCE        324.    
 LARGEST SCALED RESIDUAL FORCE     -8.356E-12   AT NODE         23   DOF  2
   INSTANCE: FAISAL_INSTANCE                                                                 
  CORRESPONDING RESIDUAL FORCE     -8.356E-12
 LARGEST INCREMENT OF DISP.         -73.7       AT NODE         22   DOF  2
   INSTANCE: FAISAL_INSTANCE                                                                 
 LARGEST CORRECTION TO DISP.        1.156E-13   AT NODE         10   DOF  1
   INSTANCE: FAISAL_INSTANCE                                                                 
          THE FORCE     EQUILIBRIUM RESPONSE WAS LINEAR IN THIS INCREMENT

 AVERAGE HEAT FLUX                  6.250E-09   TIME AVG. HEAT FLUX   2.014E-08
 ALL HEAT FLUX RESIDUALS ARE ZERO
 LARGEST INCREMENT OF TEMP.         1.280E+03   AT NODE          1   DOF 11
   INSTANCE: FAISAL_INSTANCE                                                                 
 LARGEST CORRECTION TO TEMP.       -4.375E-44   AT NODE         14   DOF 11
   INSTANCE: FAISAL_INSTANCE                                                                 
          THE HEAT FLUX EQUILIBRIUM RESPONSE WAS LINEAR IN THIS INCREMENT

 MAXIMUM NON-PRESCRIBED INCREMENT IN TEMPERATURE IS    0.00    
          TIME INCREMENT MAY NOW INCREASE TO    7.680E+03

 ITERATION SUMMARY FOR THE INCREMENT:   1 TOTAL ITERATIONS, OF WHICH
   0 ARE SEVERE DISCONTINUITY ITERATIONS AND  1 ARE EQUILIBRIUM ITERATIONS.

 TIME INCREMENT COMPLETED  3.840E+03,  FRACTION OF STEP COMPLETED  0.222    
 STEP TIME COMPLETED       7.740E+03,  TOTAL TIME COMPLETED        7.740E+03


  INCREMENT    10 STARTS. ATTEMPT NUMBER  1, TIME INCREMENT  7.680E+03
 
	UNSYMMETRIC NEW DIRECT SPARSE SOLVER RUNNING ON
 	1 HOST x 1 MPI RANK PER HOST x 1 THREAD PER RANK
        NUMBER OF EQUATIONS:  108
        NUMBER OF RHS:        1
        NUMBER OF FLOPS:      2.204e+05
        SOLVER ELAPSED TIME:  1ms
 

 ***WARNING: SOLVER PROBLEM. NUMERICAL SINGULARITY WHEN PROCESSING NODE 
             FAISAL_INSTANCE.10 D.O.F. 2 RATIO = 1.E+15     .

               CONVERGENCE CHECKS FOR EQUILIBRIUM ITERATION     1


 AVERAGE FORCE                      1.650E+03   TIME AVG. FORCE        456.    
 LARGEST SCALED RESIDUAL FORCE     -2.473E-11   AT NODE         14   DOF  2
   INSTANCE: FAISAL_INSTANCE                                                                 
  CORRESPONDING RESIDUAL FORCE     -2.473E-11
 LARGEST INCREMENT OF DISP.         -148.       AT NODE         19   DOF  2
   INSTANCE: FAISAL_INSTANCE                                                                 
 LARGEST CORRECTION TO DISP.        -2.70       AT NODE          1   DOF  1
   INSTANCE: FAISAL_INSTANCE                                                                 
          THE FORCE     EQUILIBRIUM RESPONSE WAS LINEAR IN THIS INCREMENT

 AVERAGE HEAT FLUX                  4.932E-09   TIME AVG. HEAT FLUX   1.862E-08
 ALL HEAT FLUX RESIDUALS ARE ZERO
 LARGEST INCREMENT OF TEMP.         2.020E+03   AT NODE          1   DOF 11
   INSTANCE: FAISAL_INSTANCE                                                                 
 LARGEST CORRECTION TO TEMP.        -540.       AT NODE          1   DOF 11
   INSTANCE: FAISAL_INSTANCE                                                                 
          THE HEAT FLUX EQUILIBRIUM RESPONSE WAS LINEAR IN THIS INCREMENT

 MAXIMUM NON-PRESCRIBED INCREMENT IN TEMPERATURE IS    0.00    
          TIME INCREMENT MAY NOW INCREASE TO    1.536E+04

 ITERATION SUMMARY FOR THE INCREMENT:   1 TOTAL ITERATIONS, OF WHICH
   0 ARE SEVERE DISCONTINUITY ITERATIONS AND  1 ARE EQUILIBRIUM ITERATIONS.

 TIME INCREMENT COMPLETED  7.680E+03,  FRACTION OF STEP COMPLETED  0.443    
 STEP TIME COMPLETED       1.542E+04,  TOTAL TIME COMPLETED        1.542E+04


  INCREMENT    11 STARTS. ATTEMPT NUMBER  1, TIME INCREMENT  1.536E+04
 
	UNSYMMETRIC NEW DIRECT SPARSE SOLVER RUNNING ON
 	1 HOST x 1 MPI RANK PER HOST x 1 THREAD PER RANK
        NUMBER OF EQUATIONS:  108
        NUMBER OF RHS:        1
        NUMBER OF FLOPS:      2.204e+05
        SOLVER ELAPSED TIME:  1ms
 

 ***WARNING: SOLVER PROBLEM. NUMERICAL SINGULARITY WHEN PROCESSING NODE 
             FAISAL_INSTANCE.10 D.O.F. 2 RATIO = 1.E+15     .

               CONVERGENCE CHECKS FOR EQUILIBRIUM ITERATION     1


 AVERAGE FORCE                       574.       TIME AVG. FORCE        467.    
 LARGEST SCALED RESIDUAL FORCE      4.346E-11   AT NODE         13   DOF  2
   INSTANCE: FAISAL_INSTANCE                                                                 
  CORRESPONDING RESIDUAL FORCE      4.346E-11
 LARGEST INCREMENT OF DISP.         -313.       AT NODE         24   DOF  2
   INSTANCE: FAISAL_INSTANCE                                                                 
 LARGEST CORRECTION TO DISP.        -36.5       AT NODE          1   DOF  1
   INSTANCE: FAISAL_INSTANCE                                                                 
          THE FORCE     EQUILIBRIUM RESPONSE WAS LINEAR IN THIS INCREMENT

 AVERAGE HEAT FLUX                  3.979E-09   TIME AVG. HEAT FLUX   1.729E-08
 ALL HEAT FLUX RESIDUALS ARE ZERO
 LARGEST INCREMENT OF TEMP.        -3.260E+03   AT NODE          1   DOF 11
   INSTANCE: FAISAL_INSTANCE                                                                 
 LARGEST CORRECTION TO TEMP.       -7.300E+03   AT NODE          1   DOF 11
   INSTANCE: FAISAL_INSTANCE                                                                 
          THE HEAT FLUX EQUILIBRIUM RESPONSE WAS LINEAR IN THIS INCREMENT

 MAXIMUM NON-PRESCRIBED INCREMENT IN TEMPERATURE IS    0.00    

 ITERATION SUMMARY FOR THE INCREMENT:   1 TOTAL ITERATIONS, OF WHICH
   0 ARE SEVERE DISCONTINUITY ITERATIONS AND  1 ARE EQUILIBRIUM ITERATIONS.

 TIME INCREMENT COMPLETED  1.536E+04,  FRACTION OF STEP COMPLETED  0.884    
 STEP TIME COMPLETED       3.078E+04,  TOTAL TIME COMPLETED        3.078E+04


  INCREMENT    12 STARTS. ATTEMPT NUMBER  1, TIME INCREMENT  4.020E+03
 
	UNSYMMETRIC NEW DIRECT SPARSE SOLVER RUNNING ON
 	1 HOST x 1 MPI RANK PER HOST x 1 THREAD PER RANK
        NUMBER OF EQUATIONS:  108
        NUMBER OF RHS:        1
        NUMBER OF FLOPS:      2.204e+05
        SOLVER ELAPSED TIME:  1ms
 

 ***WARNING: SOLVER PROBLEM. NUMERICAL SINGULARITY WHEN PROCESSING NODE 
             FAISAL_INSTANCE.10 D.O.F. 2 RATIO = 1.E+15     .

               CONVERGENCE CHECKS FOR EQUILIBRIUM ITERATION     1


 AVERAGE FORCE                       132.       TIME AVG. FORCE        439.    
 LARGEST SCALED RESIDUAL FORCE      1.540E-11   AT NODE         14   DOF  2
   INSTANCE: FAISAL_INSTANCE                                                                 
  CORRESPONDING RESIDUAL FORCE      1.540E-11
 LARGEST INCREMENT OF DISP.         -82.8       AT NODE         21   DOF  2
   INSTANCE: FAISAL_INSTANCE                                                                 
 LARGEST CORRECTION TO DISP.        -2.43       AT NODE          1   DOF  1
   INSTANCE: FAISAL_INSTANCE                                                                 
          THE FORCE     EQUILIBRIUM RESPONSE WAS LINEAR IN THIS INCREMENT

 AVERAGE HEAT FLUX                  6.250E-09   TIME AVG. HEAT FLUX   1.637E-08
 ALL HEAT FLUX RESIDUALS ARE ZERO
 LARGEST INCREMENT OF TEMP.        -1.340E+03   AT NODE          1   DOF 11
   INSTANCE: FAISAL_INSTANCE                                                                 
 LARGEST CORRECTION TO TEMP.        -487.       AT NODE          1   DOF 11
   INSTANCE: FAISAL_INSTANCE                                                                 
          THE HEAT FLUX EQUILIBRIUM RESPONSE WAS LINEAR IN THIS INCREMENT

 MAXIMUM NON-PRESCRIBED INCREMENT IN TEMPERATURE IS    0.00    

 ITERATION SUMMARY FOR THE INCREMENT:   1 TOTAL ITERATIONS, OF WHICH
   0 ARE SEVERE DISCONTINUITY ITERATIONS AND  1 ARE EQUILIBRIUM ITERATIONS.

 TIME INCREMENT COMPLETED  4.020E+03,  FRACTION OF STEP COMPLETED   1.00    
 STEP TIME COMPLETED       3.480E+04,  TOTAL TIME COMPLETED        3.480E+04


          THE ANALYSIS HAS BEEN COMPLETED



     ANALYSIS SUMMARY:
     TOTAL OF         12  INCREMENTS
                       0  CUTBACKS IN AUTOMATIC INCREMENTATION
                      12  ITERATIONS INCLUDING CONTACT ITERATIONS IF PRESENT
                      12  PASSES THROUGH THE EQUATION SOLVER OF WHICH 
                      10  INVOLVE MATRIX DECOMPOSITION, INCLUDING
                       0  DECOMPOSITION(S) OF THE MASS MATRIX
                       1  REORDERING OF EQUATIONS TO MINIMIZE WAVEFRONT
                       0  ADDITIONAL RESIDUAL EVALUATIONS FOR LINE SEARCHES
                       0  ADDITIONAL OPERATOR EVALUATIONS FOR LINE SEARCHES
                       1  WARNING MESSAGES DURING USER INPUT PROCESSING
                      10  WARNING MESSAGES DURING ANALYSIS
                      10  ANALYSIS WARNINGS ARE NUMERICAL PROBLEM MESSAGES
                       0  ANALYSIS WARNINGS ARE NEGATIVE EIGENVALUE MESSAGES
                       0  ERROR MESSAGES



     JOB TIME SUMMARY
       USER TIME (SEC)      =     0.10    
       SYSTEM TIME (SEC)    =     0.30    
       TOTAL CPU TIME (SEC) =     0.40    
       WALLCLOCK TIME (SEC) =            0
       MEMORY PEAK (GB)     =            0
